4
Properties=species:S:1:pos:R:3:forces:R:3 energy=-1516.5408919215936 free_energy=-1516.5408919215936 dipole="0.13761412113875857 -0.333626651703711 -0.20048936976632248" pbc="F F F"
N       -1.74637274       0.13869762       0.05065158      -0.00118271       0.00272537       0.00159408
H       -0.69875431       0.02063784      -0.02030695       0.00128555      -0.00061706      -0.00030853
H       -2.03063841      -0.80310005       0.43624833      -0.00005142      -0.00149124       0.00005142
H       -2.03065425       0.03711764      -0.96193811      -0.00000000      -0.00066849      -0.00133697
